* NGSPICE file created from wb_lfsr.ext - technology: sky130A

* Black-box entry subcircuit for sky130_fd_sc_hd__fill_1 abstract view
.subckt sky130_fd_sc_hd__fill_1 VGND VNB VPB VPWR
.ends

* Black-box entry subcircuit for sky130_fd_sc_hd__inv_2 abstract view
.subckt sky130_fd_sc_hd__inv_2 A VGND VNB VPB VPWR Y
.ends

* Black-box entry subcircuit for sky130_fd_sc_hd__mux2_1 abstract view
.subckt sky130_fd_sc_hd__mux2_1 A0 A1 S VGND VNB VPB VPWR X
.ends

* Black-box entry subcircuit for sky130_fd_sc_hd__dfrtp_1 abstract view
.subckt sky130_fd_sc_hd__dfrtp_1 CLK D RESET_B VGND VNB VPB VPWR Q
.ends

* Black-box entry subcircuit for sky130_fd_sc_hd__decap_4 abstract view
.subckt sky130_fd_sc_hd__decap_4 VGND VNB VPB VPWR
.ends

* Black-box entry subcircuit for sky130_fd_sc_hd__a22o_1 abstract view
.subckt sky130_fd_sc_hd__a22o_1 A1 A2 B1 B2 VGND VNB VPB VPWR X
.ends

* Black-box entry subcircuit for sky130_fd_sc_hd__fill_2 abstract view
.subckt sky130_fd_sc_hd__fill_2 VGND VNB VPB VPWR
.ends

* Black-box entry subcircuit for sky130_fd_sc_hd__clkbuf_1 abstract view
.subckt sky130_fd_sc_hd__clkbuf_1 A VGND VNB VPB VPWR X
.ends

* Black-box entry subcircuit for sky130_ef_sc_hd__decap_12 abstract view
.subckt sky130_ef_sc_hd__decap_12 VGND VNB VPB VPWR
.ends

* Black-box entry subcircuit for sky130_fd_sc_hd__decap_3 abstract view
.subckt sky130_fd_sc_hd__decap_3 VGND VNB VPB VPWR
.ends

* Black-box entry subcircuit for sky130_fd_sc_hd__decap_6 abstract view
.subckt sky130_fd_sc_hd__decap_6 VGND VNB VPB VPWR
.ends

* Black-box entry subcircuit for sky130_fd_sc_hd__tapvpwrvgnd_1 abstract view
.subckt sky130_fd_sc_hd__tapvpwrvgnd_1 VGND VPWR
.ends

* Black-box entry subcircuit for sky130_fd_sc_hd__and2_1 abstract view
.subckt sky130_fd_sc_hd__and2_1 A B VGND VNB VPB VPWR X
.ends

* Black-box entry subcircuit for sky130_fd_sc_hd__decap_8 abstract view
.subckt sky130_fd_sc_hd__decap_8 VGND VNB VPB VPWR
.ends

* Black-box entry subcircuit for sky130_fd_sc_hd__or3_1 abstract view
.subckt sky130_fd_sc_hd__or3_1 A B C VGND VNB VPB VPWR X
.ends

* Black-box entry subcircuit for sky130_fd_sc_hd__buf_4 abstract view
.subckt sky130_fd_sc_hd__buf_4 A VGND VNB VPB VPWR X
.ends

* Black-box entry subcircuit for sky130_fd_sc_hd__and3b_1 abstract view
.subckt sky130_fd_sc_hd__and3b_1 A_N B C VGND VNB VPB VPWR X
.ends

* Black-box entry subcircuit for sky130_fd_sc_hd__and3_1 abstract view
.subckt sky130_fd_sc_hd__and3_1 A B C VGND VNB VPB VPWR X
.ends

* Black-box entry subcircuit for sky130_fd_sc_hd__clkbuf_4 abstract view
.subckt sky130_fd_sc_hd__clkbuf_4 A VGND VNB VPB VPWR X
.ends

* Black-box entry subcircuit for sky130_fd_sc_hd__buf_2 abstract view
.subckt sky130_fd_sc_hd__buf_2 A VGND VNB VPB VPWR X
.ends

* Black-box entry subcircuit for sky130_fd_sc_hd__and2b_1 abstract view
.subckt sky130_fd_sc_hd__and2b_1 A_N B VGND VNB VPB VPWR X
.ends

* Black-box entry subcircuit for sky130_fd_sc_hd__and3b_2 abstract view
.subckt sky130_fd_sc_hd__and3b_2 A_N B C VGND VNB VPB VPWR X
.ends

* Black-box entry subcircuit for sky130_fd_sc_hd__dfxtp_1 abstract view
.subckt sky130_fd_sc_hd__dfxtp_1 CLK D VGND VNB VPB VPWR Q
.ends

* Black-box entry subcircuit for sky130_fd_sc_hd__xnor2_1 abstract view
.subckt sky130_fd_sc_hd__xnor2_1 A B VGND VNB VPB VPWR Y
.ends

* Black-box entry subcircuit for sky130_fd_sc_hd__clkbuf_2 abstract view
.subckt sky130_fd_sc_hd__clkbuf_2 A VGND VNB VPB VPWR X
.ends

* Black-box entry subcircuit for sky130_fd_sc_hd__xor2_1 abstract view
.subckt sky130_fd_sc_hd__xor2_1 A B VGND VNB VPB VPWR X
.ends

* Black-box entry subcircuit for sky130_fd_sc_hd__dlymetal6s2s_1 abstract view
.subckt sky130_fd_sc_hd__dlymetal6s2s_1 A VGND VNB VPB VPWR X
.ends

* Black-box entry subcircuit for sky130_fd_sc_hd__o2111a_4 abstract view
.subckt sky130_fd_sc_hd__o2111a_4 A1 A2 B1 C1 D1 VGND VNB VPB VPWR X
.ends

* Black-box entry subcircuit for sky130_fd_sc_hd__buf_1 abstract view
.subckt sky130_fd_sc_hd__buf_1 A VGND VNB VPB VPWR X
.ends

* Black-box entry subcircuit for sky130_fd_sc_hd__nor3_2 abstract view
.subckt sky130_fd_sc_hd__nor3_2 A B C VGND VNB VPB VPWR Y
.ends

* Black-box entry subcircuit for sky130_fd_sc_hd__o21ai_4 abstract view
.subckt sky130_fd_sc_hd__o21ai_4 A1 A2 B1 VGND VNB VPB VPWR Y
.ends

* Black-box entry subcircuit for sky130_fd_sc_hd__o2111a_1 abstract view
.subckt sky130_fd_sc_hd__o2111a_1 A1 A2 B1 C1 D1 VGND VNB VPB VPWR X
.ends

* Black-box entry subcircuit for sky130_fd_sc_hd__nor2_1 abstract view
.subckt sky130_fd_sc_hd__nor2_1 A B VGND VNB VPB VPWR Y
.ends

* Black-box entry subcircuit for sky130_fd_sc_hd__dfxtp_2 abstract view
.subckt sky130_fd_sc_hd__dfxtp_2 CLK D VGND VNB VPB VPWR Q
.ends

* Black-box entry subcircuit for sky130_fd_sc_hd__and4bb_1 abstract view
.subckt sky130_fd_sc_hd__and4bb_1 A_N B_N C D VGND VNB VPB VPWR X
.ends

* Black-box entry subcircuit for sky130_fd_sc_hd__or2b_1 abstract view
.subckt sky130_fd_sc_hd__or2b_1 A B_N VGND VNB VPB VPWR X
.ends

* Black-box entry subcircuit for sky130_fd_sc_hd__or3b_1 abstract view
.subckt sky130_fd_sc_hd__or3b_1 A B C_N VGND VNB VPB VPWR X
.ends

* Black-box entry subcircuit for sky130_fd_sc_hd__or3b_2 abstract view
.subckt sky130_fd_sc_hd__or3b_2 A B C_N VGND VNB VPB VPWR X
.ends

* Black-box entry subcircuit for sky130_fd_sc_hd__conb_1 abstract view
.subckt sky130_fd_sc_hd__conb_1 VGND VNB VPB VPWR HI LO
.ends

* Black-box entry subcircuit for sky130_fd_sc_hd__diode_2 abstract view
.subckt sky130_fd_sc_hd__diode_2 DIODE VGND VNB VPB VPWR
.ends

.subckt wb_lfsr VGND VPWR i_clk i_reset i_wb_addr[0] i_wb_addr[1] i_wb_addr[2] i_wb_cyc
+ i_wb_data[0] i_wb_data[1] i_wb_data[2] i_wb_data[3] i_wb_data[4] i_wb_data[5] i_wb_data[6]
+ i_wb_data[7] i_wb_stb i_wb_we o_wb_ack o_wb_data o_wb_stall
XFILLER_0_7_81 VGND VGND VPWR VPWR sky130_fd_sc_hd__fill_1
X_363_ _166_ VGND VGND VPWR VPWR _029_ sky130_fd_sc_hd__inv_2
X_294_ FLSR_instance.muxes\[2\].input_a _143_ _139_ VGND VGND VPWR VPWR _144_ sky130_fd_sc_hd__mux2_1
X_432_ net23 FLSR_instance.flip_flop_instance\[1\].in _030_ VGND VGND VPWR VPWR FLSR_instance.flip_flop_instance\[1\].out
+ sky130_fd_sc_hd__dfrtp_1
XFILLER_0_13_62 VGND VGND VPWR VPWR sky130_fd_sc_hd__fill_1
XFILLER_0_13_51 VGND VGND VPWR VPWR sky130_fd_sc_hd__decap_4
XFILLER_0_18_29 VGND VGND VPWR VPWR sky130_fd_sc_hd__fill_1
X_415_ net21 FLSR_instance.flip_flop_instance\[18\].in _013_ VGND VGND VPWR VPWR FLSR_instance.flip_flop_instance\[18\].out
+ sky130_fd_sc_hd__dfrtp_1
X_346_ _165_ VGND VGND VPWR VPWR _013_ sky130_fd_sc_hd__inv_2
X_277_ FLSR_instance.muxes\[21\].input_a _129_ _132_ net12 VGND VGND VPWR VPWR _045_
+ sky130_fd_sc_hd__a22o_1
XFILLER_0_4_82 VGND VGND VPWR VPWR sky130_fd_sc_hd__fill_2
X_200_ _085_ VGND VGND VPWR VPWR FLSR_instance.flip_flop_instance\[16\].in sky130_fd_sc_hd__clkbuf_1
X_329_ FLSR_instance.flip_flop_instance\[0\].reset _162_ _135_ VGND VGND VPWR VPWR
+ _163_ sky130_fd_sc_hd__mux2_1
XFILLER_0_0_29 VGND VGND VPWR VPWR sky130_fd_sc_hd__fill_2
XFILLER_0_19_147 VGND VGND VPWR VPWR sky130_ef_sc_hd__decap_12
XFILLER_0_19_125 VGND VGND VPWR VPWR sky130_fd_sc_hd__decap_3
XPHY_EDGE_ROW_8_Left_36 VGND VGND VPWR VPWR sky130_fd_sc_hd__decap_3
XFILLER_0_21_51 VGND VGND VPWR VPWR sky130_fd_sc_hd__decap_4
XFILLER_0_26_29 VGND VGND VPWR VPWR sky130_fd_sc_hd__fill_1
XFILLER_0_16_73 VGND VGND VPWR VPWR sky130_fd_sc_hd__decap_6
XFILLER_0_6_39 VGND VGND VPWR VPWR sky130_fd_sc_hd__fill_1
XTAP_TAPCELL_ROW_27_126 VGND VPWR sky130_fd_sc_hd__tapvpwrvgnd_1
XFILLER_0_12_164 VGND VGND VPWR VPWR sky130_fd_sc_hd__fill_2
XTAP_TAPCELL_ROW_18_104 VGND VPWR sky130_fd_sc_hd__tapvpwrvgnd_1
XFILLER_0_27_94 VGND VGND VPWR VPWR sky130_ef_sc_hd__decap_12
XFILLER_0_27_83 VGND VGND VPWR VPWR sky130_fd_sc_hd__fill_1
XTAP_TAPCELL_ROW_24_118 VGND VPWR sky130_fd_sc_hd__tapvpwrvgnd_1
XFILLER_0_4_150 VGND VGND VPWR VPWR sky130_ef_sc_hd__decap_12
X_362_ _166_ VGND VGND VPWR VPWR _028_ sky130_fd_sc_hd__inv_2
XFILLER_0_23_19 VGND VGND VPWR VPWR sky130_ef_sc_hd__decap_12
X_431_ net24 FLSR_instance.flip_flop_instance\[2\].in _029_ VGND VGND VPWR VPWR FLSR_instance.flip_flop_instance\[2\].out
+ sky130_fd_sc_hd__dfrtp_1
X_293_ net9 _137_ VGND VGND VPWR VPWR _143_ sky130_fd_sc_hd__and2_1
XPHY_EDGE_ROW_21_Left_49 VGND VGND VPWR VPWR sky130_fd_sc_hd__decap_3
XFILLER_0_2_109 VGND VGND VPWR VPWR sky130_fd_sc_hd__decap_8
XTAP_TAPCELL_ROW_12_88 VGND VPWR sky130_fd_sc_hd__tapvpwrvgnd_1
XTAP_TAPCELL_ROW_20_110 VGND VPWR sky130_fd_sc_hd__tapvpwrvgnd_1
XTAP_TAPCELL_ROW_8_78 VGND VPWR sky130_fd_sc_hd__tapvpwrvgnd_1
X_345_ _165_ VGND VGND VPWR VPWR _012_ sky130_fd_sc_hd__inv_2
X_414_ net21 FLSR_instance.flip_flop_instance\[19\].in _012_ VGND VGND VPWR VPWR FLSR_instance.flip_flop_instance\[19\].out
+ sky130_fd_sc_hd__dfrtp_1
X_276_ FLSR_instance.muxes\[20\].input_a _129_ _132_ net11 VGND VGND VPWR VPWR _044_
+ sky130_fd_sc_hd__a22o_1
XFILLER_0_24_95 VGND VGND VPWR VPWR sky130_ef_sc_hd__decap_12
XPHY_EDGE_ROW_21_Right_21 VGND VGND VPWR VPWR sky130_fd_sc_hd__decap_3
XPHY_EDGE_ROW_12_Right_12 VGND VGND VPWR VPWR sky130_fd_sc_hd__decap_3
X_328_ net7 net4 net3 VGND VGND VPWR VPWR _162_ sky130_fd_sc_hd__or3_1
X_259_ _122_ VGND VGND VPWR VPWR _037_ sky130_fd_sc_hd__clkbuf_1
XPHY_EDGE_ROW_24_Left_52 VGND VGND VPWR VPWR sky130_fd_sc_hd__decap_3
XFILLER_0_19_159 VGND VGND VPWR VPWR sky130_fd_sc_hd__decap_6
XFILLER_0_16_96 VGND VGND VPWR VPWR sky130_fd_sc_hd__decap_8
XFILLER_0_16_85 VGND VGND VPWR VPWR sky130_fd_sc_hd__fill_2
XFILLER_0_16_63 VGND VGND VPWR VPWR sky130_fd_sc_hd__fill_1
XFILLER_0_6_29 VGND VGND VPWR VPWR sky130_fd_sc_hd__fill_1
XTAP_TAPCELL_ROW_27_127 VGND VPWR sky130_fd_sc_hd__tapvpwrvgnd_1
XPHY_EDGE_ROW_6_Right_6 VGND VGND VPWR VPWR sky130_fd_sc_hd__decap_3
XTAP_TAPCELL_ROW_18_105 VGND VPWR sky130_fd_sc_hd__tapvpwrvgnd_1
XTAP_TAPCELL_ROW_24_119 VGND VPWR sky130_fd_sc_hd__tapvpwrvgnd_1
XFILLER_0_11_6 VGND VGND VPWR VPWR sky130_fd_sc_hd__decap_4
X_430_ net24 FLSR_instance.flip_flop_instance\[3\].in _028_ VGND VGND VPWR VPWR FLSR_instance.flip_flop_instance\[3\].out
+ sky130_fd_sc_hd__dfrtp_1
X_361_ _166_ VGND VGND VPWR VPWR _027_ sky130_fd_sc_hd__inv_2
X_292_ _142_ VGND VGND VPWR VPWR _050_ sky130_fd_sc_hd__clkbuf_1
XFILLER_0_4_162 VGND VGND VPWR VPWR sky130_fd_sc_hd__decap_4
XFILLER_0_3_19 VGND VGND VPWR VPWR sky130_fd_sc_hd__decap_6
XFILLER_0_1_110 VGND VGND VPWR VPWR sky130_fd_sc_hd__fill_2
XTAP_TAPCELL_ROW_12_89 VGND VPWR sky130_fd_sc_hd__tapvpwrvgnd_1
X_275_ FLSR_instance.muxes\[19\].input_a _129_ _132_ net10 VGND VGND VPWR VPWR _043_
+ sky130_fd_sc_hd__a22o_1
X_413_ net21 FLSR_instance.flip_flop_instance\[20\].in _011_ VGND VGND VPWR VPWR FLSR_instance.flip_flop_instance\[20\].out
+ sky130_fd_sc_hd__dfrtp_1
X_344_ _165_ VGND VGND VPWR VPWR _011_ sky130_fd_sc_hd__inv_2
XTAP_TAPCELL_ROW_8_79 VGND VPWR sky130_fd_sc_hd__tapvpwrvgnd_1
XFILLER_0_24_85 VGND VGND VPWR VPWR sky130_fd_sc_hd__fill_1
XFILLER_0_4_95 VGND VGND VPWR VPWR sky130_fd_sc_hd__decap_3
X_327_ _161_ VGND VGND VPWR VPWR _066_ sky130_fd_sc_hd__clkbuf_1
X_189_ FLSR_instance.flip_flop_instance\[20\].out FLSR_instance.muxes\[21\].input_a
+ _078_ VGND VGND VPWR VPWR _080_ sky130_fd_sc_hd__mux2_1
X_258_ FLSR_instance.muxes\[29\].input_a _121_ _111_ VGND VGND VPWR VPWR _122_ sky130_fd_sc_hd__mux2_1
XFILLER_0_24_130 VGND VGND VPWR VPWR sky130_fd_sc_hd__decap_8
XFILLER_0_15_163 VGND VGND VPWR VPWR sky130_fd_sc_hd__decap_3
XFILLER_0_15_141 VGND VGND VPWR VPWR sky130_fd_sc_hd__decap_4
XFILLER_0_1_52 VGND VGND VPWR VPWR sky130_fd_sc_hd__decap_4
XFILLER_0_21_111 VGND VGND VPWR VPWR sky130_fd_sc_hd__fill_1
XTAP_TAPCELL_ROW_27_128 VGND VPWR sky130_fd_sc_hd__tapvpwrvgnd_1
X_360_ _166_ VGND VGND VPWR VPWR _026_ sky130_fd_sc_hd__inv_2
X_291_ FLSR_instance.muxes\[1\].input_a _141_ _139_ VGND VGND VPWR VPWR _142_ sky130_fd_sc_hd__mux2_1
XFILLER_0_0_7 VGND VGND VPWR VPWR sky130_ef_sc_hd__decap_12
X_274_ FLSR_instance.muxes\[18\].input_a _129_ _132_ net9 VGND VGND VPWR VPWR _042_
+ sky130_fd_sc_hd__a22o_1
X_412_ net21 FLSR_instance.flip_flop_instance\[21\].in _010_ VGND VGND VPWR VPWR FLSR_instance.flip_flop_instance\[21\].out
+ sky130_fd_sc_hd__dfrtp_1
X_343_ _165_ VGND VGND VPWR VPWR _010_ sky130_fd_sc_hd__inv_2
XFILLER_0_4_74 VGND VGND VPWR VPWR sky130_fd_sc_hd__decap_8
XFILLER_0_4_85 VGND VGND VPWR VPWR sky130_fd_sc_hd__decap_3
X_326_ net18 _104_ _160_ VGND VGND VPWR VPWR _161_ sky130_fd_sc_hd__mux2_1
X_188_ _079_ VGND VGND VPWR VPWR FLSR_instance.flip_flop_instance\[22\].in sky130_fd_sc_hd__clkbuf_1
XFILLER_0_9_19 VGND VGND VPWR VPWR sky130_fd_sc_hd__decap_3
XFILLER_0_10_55 VGND VGND VPWR VPWR sky130_fd_sc_hd__decap_3
X_257_ net12 _106_ VGND VGND VPWR VPWR _121_ sky130_fd_sc_hd__and2_1
XFILLER_0_19_117 VGND VGND VPWR VPWR sky130_fd_sc_hd__fill_1
XFILLER_0_21_21 VGND VGND VPWR VPWR sky130_fd_sc_hd__decap_4
X_309_ FLSR_instance.muxes\[7\].input_a _153_ _139_ VGND VGND VPWR VPWR _154_ sky130_fd_sc_hd__mux2_1
XFILLER_0_24_164 VGND VGND VPWR VPWR sky130_fd_sc_hd__fill_2
XFILLER_0_21_123 VGND VGND VPWR VPWR sky130_fd_sc_hd__decap_4
XFILLER_0_12_134 VGND VGND VPWR VPWR sky130_fd_sc_hd__decap_6
XTAP_TAPCELL_ROW_27_129 VGND VPWR sky130_fd_sc_hd__tapvpwrvgnd_1
XFILLER_0_7_85 VGND VGND VPWR VPWR sky130_ef_sc_hd__decap_12
X_290_ net8 _137_ VGND VGND VPWR VPWR _141_ sky130_fd_sc_hd__and2_1
XFILLER_0_13_66 VGND VGND VPWR VPWR sky130_fd_sc_hd__decap_3
XFILLER_0_13_55 VGND VGND VPWR VPWR sky130_fd_sc_hd__fill_1
XFILLER_0_1_134 VGND VGND VPWR VPWR sky130_ef_sc_hd__decap_12
X_342_ FLSR_instance.flip_flop_instance\[0\].reset VGND VGND VPWR VPWR _165_ sky130_fd_sc_hd__buf_4
X_411_ net19 FLSR_instance.flip_flop_instance\[22\].in _009_ VGND VGND VPWR VPWR FLSR_instance.flip_flop_instance\[22\].out
+ sky130_fd_sc_hd__dfrtp_1
X_273_ FLSR_instance.muxes\[17\].input_a _129_ _132_ net8 VGND VGND VPWR VPWR _041_
+ sky130_fd_sc_hd__a22o_1
XFILLER_0_24_54 VGND VGND VPWR VPWR sky130_fd_sc_hd__fill_1
X_325_ net16 net6 net15 VGND VGND VPWR VPWR _160_ sky130_fd_sc_hd__and3b_1
X_256_ _120_ VGND VGND VPWR VPWR _036_ sky130_fd_sc_hd__clkbuf_1
XTAP_TAPCELL_ROW_0_60 VGND VPWR sky130_fd_sc_hd__tapvpwrvgnd_1
X_187_ FLSR_instance.flip_flop_instance\[21\].out FLSR_instance.muxes\[22\].input_a
+ _078_ VGND VGND VPWR VPWR _079_ sky130_fd_sc_hd__mux2_1
XFILLER_0_10_23 VGND VGND VPWR VPWR sky130_fd_sc_hd__decap_4
XFILLER_0_21_55 VGND VGND VPWR VPWR sky130_fd_sc_hd__fill_1
XFILLER_0_21_11 VGND VGND VPWR VPWR sky130_fd_sc_hd__fill_1
X_239_ net15 net16 net6 VGND VGND VPWR VPWR _108_ sky130_fd_sc_hd__and3_1
X_308_ net14 _137_ VGND VGND VPWR VPWR _153_ sky130_fd_sc_hd__and2_1
XFILLER_0_21_113 VGND VGND VPWR VPWR sky130_fd_sc_hd__decap_3
XFILLER_0_12_124 VGND VGND VPWR VPWR sky130_fd_sc_hd__fill_1
XFILLER_0_25_3 VGND VGND VPWR VPWR sky130_fd_sc_hd__decap_8
XPHY_EDGE_ROW_19_Right_19 VGND VGND VPWR VPWR sky130_fd_sc_hd__decap_3
XFILLER_0_27_54 VGND VGND VPWR VPWR sky130_fd_sc_hd__fill_2
XFILLER_0_27_21 VGND VGND VPWR VPWR sky130_fd_sc_hd__decap_3
XPHY_EDGE_ROW_15_Left_43 VGND VGND VPWR VPWR sky130_fd_sc_hd__decap_3
XFILLER_0_7_97 VGND VGND VPWR VPWR sky130_ef_sc_hd__decap_12
XFILLER_0_1_146 VGND VGND VPWR VPWR sky130_ef_sc_hd__decap_12
XFILLER_0_1_113 VGND VGND VPWR VPWR sky130_fd_sc_hd__decap_4
XPHY_EDGE_ROW_0_Left_28 VGND VGND VPWR VPWR sky130_fd_sc_hd__decap_3
X_341_ _164_ VGND VGND VPWR VPWR _009_ sky130_fd_sc_hd__inv_2
X_410_ net20 FLSR_instance.flip_flop_instance\[23\].in _008_ VGND VGND VPWR VPWR FLSR_instance.flip_flop_instance\[23\].out
+ sky130_fd_sc_hd__dfrtp_1
X_272_ FLSR_instance.muxes\[16\].input_a _129_ _132_ net7 VGND VGND VPWR VPWR _040_
+ sky130_fd_sc_hd__a22o_1
XFILLER_0_4_32 VGND VGND VPWR VPWR sky130_fd_sc_hd__decap_3
X_324_ _159_ VGND VGND VPWR VPWR _065_ sky130_fd_sc_hd__clkbuf_1
X_186_ FLSR_instance.load_seed VGND VGND VPWR VPWR _078_ sky130_fd_sc_hd__clkbuf_4
XTAP_TAPCELL_ROW_13_91 VGND VPWR sky130_fd_sc_hd__tapvpwrvgnd_1
X_255_ FLSR_instance.muxes\[28\].input_a _119_ _111_ VGND VGND VPWR VPWR _120_ sky130_fd_sc_hd__mux2_1
XFILLER_0_10_79 VGND VGND VPWR VPWR sky130_fd_sc_hd__decap_4
XFILLER_0_27_141 VGND VGND VPWR VPWR sky130_ef_sc_hd__decap_12
XTAP_TAPCELL_ROW_9_81 VGND VPWR sky130_fd_sc_hd__tapvpwrvgnd_1
XPHY_EDGE_ROW_3_Left_31 VGND VGND VPWR VPWR sky130_fd_sc_hd__decap_3
XFILLER_0_24_144 VGND VGND VPWR VPWR sky130_ef_sc_hd__decap_12
XFILLER_0_21_34 VGND VGND VPWR VPWR sky130_fd_sc_hd__fill_1
X_307_ _152_ VGND VGND VPWR VPWR _055_ sky130_fd_sc_hd__clkbuf_1
X_169_ _069_ VGND VGND VPWR VPWR FLSR_instance.flip_flop_instance\[31\].in sky130_fd_sc_hd__clkbuf_1
XFILLER_0_1_11 VGND VGND VPWR VPWR sky130_fd_sc_hd__decap_3
X_238_ net7 _106_ VGND VGND VPWR VPWR _107_ sky130_fd_sc_hd__and2_1
XFILLER_0_15_155 VGND VGND VPWR VPWR sky130_fd_sc_hd__decap_8
XFILLER_0_15_111 VGND VGND VPWR VPWR sky130_fd_sc_hd__fill_1
XFILLER_0_1_88 VGND VGND VPWR VPWR sky130_fd_sc_hd__decap_6
XFILLER_0_16_34 VGND VGND VPWR VPWR sky130_fd_sc_hd__decap_4
XFILLER_0_7_152 VGND VGND VPWR VPWR sky130_ef_sc_hd__decap_12
XFILLER_0_27_77 VGND VGND VPWR VPWR sky130_fd_sc_hd__decap_6
XFILLER_0_7_54 VGND VGND VPWR VPWR sky130_fd_sc_hd__fill_2
XFILLER_0_7_3 VGND VGND VPWR VPWR sky130_ef_sc_hd__decap_12
XFILLER_0_13_57 VGND VGND VPWR VPWR sky130_fd_sc_hd__fill_1
XFILLER_0_13_35 VGND VGND VPWR VPWR sky130_fd_sc_hd__fill_1
XFILLER_0_1_158 VGND VGND VPWR VPWR sky130_fd_sc_hd__decap_8
X_340_ _164_ VGND VGND VPWR VPWR _008_ sky130_fd_sc_hd__inv_2
X_271_ _131_ VGND VGND VPWR VPWR _132_ sky130_fd_sc_hd__buf_2
X_323_ net2 net15 VGND VGND VPWR VPWR _159_ sky130_fd_sc_hd__and2b_1
XTAP_TAPCELL_ROW_13_92 VGND VPWR sky130_fd_sc_hd__tapvpwrvgnd_1
X_254_ net11 _106_ VGND VGND VPWR VPWR _119_ sky130_fd_sc_hd__and2_1
X_185_ _077_ VGND VGND VPWR VPWR FLSR_instance.flip_flop_instance\[23\].in sky130_fd_sc_hd__clkbuf_1
XFILLER_0_27_153 VGND VGND VPWR VPWR sky130_fd_sc_hd__decap_4
XFILLER_0_27_131 VGND VGND VPWR VPWR sky130_fd_sc_hd__decap_8
XTAP_TAPCELL_ROW_9_82 VGND VPWR sky130_fd_sc_hd__tapvpwrvgnd_1
XFILLER_0_18_164 VGND VGND VPWR VPWR sky130_fd_sc_hd__fill_2
XFILLER_0_24_156 VGND VGND VPWR VPWR sky130_fd_sc_hd__decap_8
XFILLER_0_24_123 VGND VGND VPWR VPWR sky130_fd_sc_hd__decap_4
XFILLER_0_21_57 VGND VGND VPWR VPWR sky130_ef_sc_hd__decap_12
X_306_ FLSR_instance.muxes\[6\].input_a _151_ _139_ VGND VGND VPWR VPWR _152_ sky130_fd_sc_hd__mux2_1
X_168_ FLSR_instance.flip_flop_instance\[30\].out FLSR_instance.muxes\[31\].input_a
+ _068_ VGND VGND VPWR VPWR _069_ sky130_fd_sc_hd__mux2_1
X_237_ net5 net4 net3 VGND VGND VPWR VPWR _106_ sky130_fd_sc_hd__and3b_2
XFILLER_0_8_109 VGND VGND VPWR VPWR sky130_ef_sc_hd__decap_12
XPHY_EDGE_ROW_1_Right_1 VGND VGND VPWR VPWR sky130_fd_sc_hd__decap_3
XFILLER_0_7_142 VGND VGND VPWR VPWR sky130_fd_sc_hd__fill_1
XFILLER_0_7_164 VGND VGND VPWR VPWR sky130_fd_sc_hd__fill_2
XFILLER_0_4_101 VGND VGND VPWR VPWR sky130_ef_sc_hd__decap_12
XFILLER_0_7_77 VGND VGND VPWR VPWR sky130_fd_sc_hd__decap_4
XFILLER_0_13_25 VGND VGND VPWR VPWR sky130_fd_sc_hd__fill_1
X_270_ _127_ _130_ _128_ VGND VGND VPWR VPWR _131_ sky130_fd_sc_hd__and3_1
X_399_ net23 _065_ VGND VGND VPWR VPWR net17 sky130_fd_sc_hd__dfxtp_1
X_322_ FLSR_instance.muxes\[15\].input_a _156_ _158_ net14 VGND VGND VPWR VPWR _064_
+ sky130_fd_sc_hd__a22o_1
X_253_ _118_ VGND VGND VPWR VPWR _035_ sky130_fd_sc_hd__clkbuf_1
X_184_ FLSR_instance.flip_flop_instance\[22\].out FLSR_instance.muxes\[23\].input_a
+ _068_ VGND VGND VPWR VPWR _077_ sky130_fd_sc_hd__mux2_1
XFILLER_0_10_15 VGND VGND VPWR VPWR sky130_fd_sc_hd__decap_4
X_236_ _105_ VGND VGND VPWR VPWR FLSR_instance.flip_flop_instance\[0\].in sky130_fd_sc_hd__clkbuf_1
X_305_ net13 _137_ VGND VGND VPWR VPWR _151_ sky130_fd_sc_hd__and2_1
X_167_ FLSR_instance.load_seed VGND VGND VPWR VPWR _068_ sky130_fd_sc_hd__clkbuf_4
XFILLER_0_27_9 VGND VGND VPWR VPWR sky130_ef_sc_hd__decap_12
XFILLER_0_1_57 VGND VGND VPWR VPWR sky130_fd_sc_hd__fill_1
XFILLER_0_1_35 VGND VGND VPWR VPWR sky130_fd_sc_hd__fill_1
XFILLER_0_21_127 VGND VGND VPWR VPWR sky130_fd_sc_hd__fill_1
XFILLER_0_21_105 VGND VGND VPWR VPWR sky130_fd_sc_hd__decap_6
XTAP_TAPCELL_ROW_10_83 VGND VPWR sky130_fd_sc_hd__tapvpwrvgnd_1
X_219_ _095_ VGND VGND VPWR VPWR FLSR_instance.flip_flop_instance\[7\].in sky130_fd_sc_hd__clkbuf_1
XFILLER_0_16_25 VGND VGND VPWR VPWR sky130_fd_sc_hd__decap_3
XTAP_TAPCELL_ROW_6_73 VGND VPWR sky130_fd_sc_hd__tapvpwrvgnd_1
XFILLER_0_27_57 VGND VGND VPWR VPWR sky130_ef_sc_hd__decap_12
XPHY_EDGE_ROW_24_Right_24 VGND VGND VPWR VPWR sky130_fd_sc_hd__decap_3
XPHY_EDGE_ROW_15_Right_15 VGND VGND VPWR VPWR sky130_fd_sc_hd__decap_3
XFILLER_0_4_113 VGND VGND VPWR VPWR sky130_ef_sc_hd__decap_12
XPHY_EDGE_ROW_19_Left_47 VGND VGND VPWR VPWR sky130_fd_sc_hd__decap_3
XFILLER_0_24_58 VGND VGND VPWR VPWR sky130_ef_sc_hd__decap_12
X_398_ net22 _064_ VGND VGND VPWR VPWR FLSR_instance.muxes\[15\].input_a sky130_fd_sc_hd__dfxtp_1
X_321_ FLSR_instance.muxes\[14\].input_a _156_ _158_ net13 VGND VGND VPWR VPWR _063_
+ sky130_fd_sc_hd__a22o_1
X_252_ FLSR_instance.muxes\[27\].input_a _117_ _111_ VGND VGND VPWR VPWR _118_ sky130_fd_sc_hd__mux2_1
X_183_ _076_ VGND VGND VPWR VPWR FLSR_instance.flip_flop_instance\[24\].in sky130_fd_sc_hd__clkbuf_1
XFILLER_0_10_27 VGND VGND VPWR VPWR sky130_fd_sc_hd__fill_1
XFILLER_0_10_38 VGND VGND VPWR VPWR sky130_fd_sc_hd__decap_8
XFILLER_0_18_144 VGND VGND VPWR VPWR sky130_ef_sc_hd__decap_12
X_304_ _150_ VGND VGND VPWR VPWR _054_ sky130_fd_sc_hd__clkbuf_1
X_235_ _104_ FLSR_instance.muxes\[0\].input_a FLSR_instance.load_seed VGND VGND VPWR
+ VPWR _105_ sky130_fd_sc_hd__mux2_1
XPHY_EDGE_ROW_7_Left_35 VGND VGND VPWR VPWR sky130_fd_sc_hd__decap_3
XTAP_TAPCELL_ROW_10_84 VGND VPWR sky130_fd_sc_hd__tapvpwrvgnd_1
XFILLER_0_20_161 VGND VGND VPWR VPWR sky130_fd_sc_hd__decap_4
X_218_ FLSR_instance.flip_flop_instance\[6\].out FLSR_instance.muxes\[7\].input_a
+ _089_ VGND VGND VPWR VPWR _095_ sky130_fd_sc_hd__mux2_1
XTAP_TAPCELL_ROW_6_74 VGND VPWR sky130_fd_sc_hd__tapvpwrvgnd_1
Xoutput17 net17 VGND VGND VPWR VPWR o_wb_ack sky130_fd_sc_hd__clkbuf_4
XFILLER_0_27_69 VGND VGND VPWR VPWR sky130_fd_sc_hd__decap_4
XTAP_TAPCELL_ROW_26_123 VGND VPWR sky130_fd_sc_hd__tapvpwrvgnd_1
XTAP_TAPCELL_ROW_17_101 VGND VPWR sky130_fd_sc_hd__tapvpwrvgnd_1
XFILLER_0_17_91 VGND VGND VPWR VPWR sky130_ef_sc_hd__decap_12
XFILLER_0_16_3 VGND VGND VPWR VPWR sky130_fd_sc_hd__decap_3
XFILLER_0_4_125 VGND VGND VPWR VPWR sky130_ef_sc_hd__decap_12
XFILLER_0_1_117 VGND VGND VPWR VPWR sky130_fd_sc_hd__fill_1
XFILLER_0_0_161 VGND VGND VPWR VPWR sky130_fd_sc_hd__fill_2
XFILLER_0_24_48 VGND VGND VPWR VPWR sky130_fd_sc_hd__decap_6
XFILLER_0_24_37 VGND VGND VPWR VPWR sky130_fd_sc_hd__decap_3
XFILLER_0_24_15 VGND VGND VPWR VPWR sky130_ef_sc_hd__decap_12
XPHY_EDGE_ROW_20_Left_48 VGND VGND VPWR VPWR sky130_fd_sc_hd__decap_3
X_397_ net25 _063_ VGND VGND VPWR VPWR FLSR_instance.muxes\[14\].input_a sky130_fd_sc_hd__dfxtp_1
XFILLER_0_5_3 VGND VGND VPWR VPWR sky130_fd_sc_hd__fill_2
X_320_ FLSR_instance.muxes\[13\].input_a _156_ _158_ net12 VGND VGND VPWR VPWR _062_
+ sky130_fd_sc_hd__a22o_1
X_251_ net10 _106_ VGND VGND VPWR VPWR _117_ sky130_fd_sc_hd__and2_1
X_182_ FLSR_instance.flip_flop_instance\[23\].out FLSR_instance.muxes\[24\].input_a
+ _068_ VGND VGND VPWR VPWR _076_ sky130_fd_sc_hd__mux2_1
XFILLER_0_18_156 VGND VGND VPWR VPWR sky130_fd_sc_hd__decap_8
X_303_ FLSR_instance.muxes\[5\].input_a _149_ _139_ VGND VGND VPWR VPWR _150_ sky130_fd_sc_hd__mux2_1
XPHY_EDGE_ROW_23_Left_51 VGND VGND VPWR VPWR sky130_fd_sc_hd__decap_3
X_234_ _102_ _103_ VGND VGND VPWR VPWR _104_ sky130_fd_sc_hd__xnor2_1
XTAP_TAPCELL_ROW_10_85 VGND VPWR sky130_fd_sc_hd__tapvpwrvgnd_1
X_217_ _094_ VGND VGND VPWR VPWR FLSR_instance.flip_flop_instance\[8\].in sky130_fd_sc_hd__clkbuf_1
XTAP_TAPCELL_ROW_6_75 VGND VPWR sky130_fd_sc_hd__tapvpwrvgnd_1
XFILLER_0_12_118 VGND VGND VPWR VPWR sky130_fd_sc_hd__decap_6
Xoutput18 net18 VGND VGND VPWR VPWR o_wb_data sky130_fd_sc_hd__clkbuf_4
XTAP_TAPCELL_ROW_26_124 VGND VPWR sky130_fd_sc_hd__tapvpwrvgnd_1
XTAP_TAPCELL_ROW_17_102 VGND VPWR sky130_fd_sc_hd__tapvpwrvgnd_1
XTAP_TAPCELL_ROW_23_116 VGND VPWR sky130_fd_sc_hd__tapvpwrvgnd_1
XPHY_EDGE_ROW_5_Right_5 VGND VGND VPWR VPWR sky130_fd_sc_hd__decap_3
XFILLER_0_13_39 VGND VGND VPWR VPWR sky130_ef_sc_hd__decap_12
XTAP_TAPCELL_ROW_20_108 VGND VPWR sky130_fd_sc_hd__tapvpwrvgnd_1
XFILLER_0_24_27 VGND VGND VPWR VPWR sky130_fd_sc_hd__fill_1
X_396_ net25 _062_ VGND VGND VPWR VPWR FLSR_instance.muxes\[13\].input_a sky130_fd_sc_hd__dfxtp_1
XFILLER_0_14_82 VGND VGND VPWR VPWR sky130_fd_sc_hd__fill_2
X_181_ _075_ VGND VGND VPWR VPWR FLSR_instance.flip_flop_instance\[25\].in sky130_fd_sc_hd__clkbuf_1
X_250_ _116_ VGND VGND VPWR VPWR _034_ sky130_fd_sc_hd__clkbuf_1
Xfanout20 net27 VGND VGND VPWR VPWR net20 sky130_fd_sc_hd__clkbuf_2
XFILLER_0_27_113 VGND VGND VPWR VPWR sky130_fd_sc_hd__fill_2
X_379_ net22 _045_ VGND VGND VPWR VPWR FLSR_instance.muxes\[21\].input_a sky130_fd_sc_hd__dfxtp_1
XFILLER_0_25_81 VGND VGND VPWR VPWR sky130_fd_sc_hd__decap_4
XFILLER_0_24_138 VGND VGND VPWR VPWR sky130_fd_sc_hd__fill_2
X_302_ net12 _137_ VGND VGND VPWR VPWR _149_ sky130_fd_sc_hd__and2_1
X_233_ FLSR_instance.flip_flop_instance\[5\].out FLSR_instance.flip_flop_instance\[1\].out
+ VGND VGND VPWR VPWR _103_ sky130_fd_sc_hd__xnor2_1
XFILLER_0_23_160 VGND VGND VPWR VPWR sky130_fd_sc_hd__decap_6
XFILLER_0_11_61 VGND VGND VPWR VPWR sky130_fd_sc_hd__fill_1
X_216_ FLSR_instance.flip_flop_instance\[7\].out FLSR_instance.muxes\[8\].input_a
+ _089_ VGND VGND VPWR VPWR _094_ sky130_fd_sc_hd__mux2_1
XFILLER_0_7_113 VGND VGND VPWR VPWR sky130_fd_sc_hd__fill_2
XTAP_TAPCELL_ROW_26_125 VGND VPWR sky130_fd_sc_hd__tapvpwrvgnd_1
XFILLER_0_2_81 VGND VGND VPWR VPWR sky130_fd_sc_hd__decap_3
XFILLER_0_11_141 VGND VGND VPWR VPWR sky130_ef_sc_hd__decap_12
XFILLER_0_7_15 VGND VGND VPWR VPWR sky130_fd_sc_hd__decap_8
XFILLER_0_7_26 VGND VGND VPWR VPWR sky130_fd_sc_hd__decap_8
XTAP_TAPCELL_ROW_23_117 VGND VPWR sky130_fd_sc_hd__tapvpwrvgnd_1
XFILLER_0_3_160 VGND VGND VPWR VPWR sky130_fd_sc_hd__decap_6
XPHY_EDGE_ROW_20_Right_20 VGND VGND VPWR VPWR sky130_fd_sc_hd__decap_3
XTAP_TAPCELL_ROW_3_66 VGND VPWR sky130_fd_sc_hd__tapvpwrvgnd_1
XPHY_EDGE_ROW_11_Right_11 VGND VGND VPWR VPWR sky130_fd_sc_hd__decap_3
XFILLER_0_21_3 VGND VGND VPWR VPWR sky130_fd_sc_hd__decap_4
XTAP_TAPCELL_ROW_20_109 VGND VPWR sky130_fd_sc_hd__tapvpwrvgnd_1
XFILLER_0_0_141 VGND VGND VPWR VPWR sky130_ef_sc_hd__decap_12
X_395_ net25 _061_ VGND VGND VPWR VPWR FLSR_instance.muxes\[12\].input_a sky130_fd_sc_hd__dfxtp_1
XFILLER_0_4_27 VGND VGND VPWR VPWR sky130_fd_sc_hd__fill_1
XFILLER_0_4_38 VGND VGND VPWR VPWR sky130_fd_sc_hd__fill_1
Xfanout21 net27 VGND VGND VPWR VPWR net21 sky130_fd_sc_hd__buf_2
X_180_ FLSR_instance.flip_flop_instance\[24\].out FLSR_instance.muxes\[25\].input_a
+ _068_ VGND VGND VPWR VPWR _075_ sky130_fd_sc_hd__mux2_1
XFILLER_0_10_19 VGND VGND VPWR VPWR sky130_fd_sc_hd__fill_1
XFILLER_0_19_39 VGND VGND VPWR VPWR sky130_fd_sc_hd__decap_8
X_378_ net21 _044_ VGND VGND VPWR VPWR FLSR_instance.muxes\[20\].input_a sky130_fd_sc_hd__dfxtp_1
XTAP_TAPCELL_ROW_0_56 VGND VPWR sky130_fd_sc_hd__tapvpwrvgnd_1
X_301_ _148_ VGND VGND VPWR VPWR _053_ sky130_fd_sc_hd__clkbuf_1
X_232_ FLSR_instance.flip_flop_instance\[6\].out FLSR_instance.flip_flop_instance\[31\].out
+ VGND VGND VPWR VPWR _102_ sky130_fd_sc_hd__xor2_1
XFILLER_0_15_117 VGND VGND VPWR VPWR sky130_ef_sc_hd__decap_12
X_215_ _093_ VGND VGND VPWR VPWR FLSR_instance.flip_flop_instance\[9\].in sky130_fd_sc_hd__clkbuf_1
XFILLER_0_22_72 VGND VGND VPWR VPWR sky130_fd_sc_hd__fill_1
XFILLER_0_2_60 VGND VGND VPWR VPWR sky130_fd_sc_hd__decap_4
XFILLER_0_11_153 VGND VGND VPWR VPWR sky130_ef_sc_hd__decap_12
XTAP_TAPCELL_ROW_3_67 VGND VPWR sky130_fd_sc_hd__tapvpwrvgnd_1
XFILLER_0_13_19 VGND VGND VPWR VPWR sky130_fd_sc_hd__decap_6
XFILLER_0_0_153 VGND VGND VPWR VPWR sky130_fd_sc_hd__decap_4
XFILLER_0_14_3 VGND VGND VPWR VPWR sky130_ef_sc_hd__decap_12
XFILLER_0_24_29 VGND VGND VPWR VPWR sky130_fd_sc_hd__decap_8
X_394_ net26 _060_ VGND VGND VPWR VPWR FLSR_instance.muxes\[11\].input_a sky130_fd_sc_hd__dfxtp_1
Xfanout22 net27 VGND VGND VPWR VPWR net22 sky130_fd_sc_hd__clkbuf_2
X_377_ net21 _043_ VGND VGND VPWR VPWR FLSR_instance.muxes\[19\].input_a sky130_fd_sc_hd__dfxtp_1
XTAP_TAPCELL_ROW_0_57 VGND VPWR sky130_fd_sc_hd__tapvpwrvgnd_1
XFILLER_0_25_72 VGND VGND VPWR VPWR sky130_fd_sc_hd__decap_6
XFILLER_0_25_61 VGND VGND VPWR VPWR sky130_fd_sc_hd__fill_2
XFILLER_0_18_137 VGND VGND VPWR VPWR sky130_fd_sc_hd__decap_3
X_300_ FLSR_instance.muxes\[4\].input_a _147_ _139_ VGND VGND VPWR VPWR _148_ sky130_fd_sc_hd__mux2_1
XFILLER_0_24_107 VGND VGND VPWR VPWR sky130_ef_sc_hd__decap_12
X_231_ _101_ VGND VGND VPWR VPWR FLSR_instance.flip_flop_instance\[1\].in sky130_fd_sc_hd__clkbuf_1
X_429_ net24 FLSR_instance.flip_flop_instance\[4\].in _027_ VGND VGND VPWR VPWR FLSR_instance.flip_flop_instance\[4\].out
+ sky130_fd_sc_hd__dfrtp_1
XFILLER_0_15_129 VGND VGND VPWR VPWR sky130_ef_sc_hd__decap_12
XFILLER_0_11_96 VGND VGND VPWR VPWR sky130_fd_sc_hd__fill_2
Xinput1 i_clk VGND VGND VPWR VPWR net1 sky130_fd_sc_hd__clkbuf_1
XPHY_EDGE_ROW_27_Left_55 VGND VGND VPWR VPWR sky130_fd_sc_hd__decap_3
X_214_ FLSR_instance.flip_flop_instance\[8\].out FLSR_instance.muxes\[9\].input_a
+ _089_ VGND VGND VPWR VPWR _093_ sky130_fd_sc_hd__mux2_1
XFILLER_0_20_165 VGND VGND VPWR VPWR sky130_fd_sc_hd__fill_1
XFILLER_0_20_121 VGND VGND VPWR VPWR sky130_fd_sc_hd__fill_1
XPHY_EDGE_ROW_11_Left_39 VGND VGND VPWR VPWR sky130_fd_sc_hd__decap_3
XFILLER_0_11_165 VGND VGND VPWR VPWR sky130_fd_sc_hd__fill_1
XTAP_TAPCELL_ROW_16_98 VGND VPWR sky130_fd_sc_hd__tapvpwrvgnd_1
XPHY_EDGE_ROW_9_Right_9 VGND VGND VPWR VPWR sky130_fd_sc_hd__decap_3
XPHY_EDGE_ROW_14_Left_42 VGND VGND VPWR VPWR sky130_fd_sc_hd__decap_3
X_393_ net25 _059_ VGND VGND VPWR VPWR FLSR_instance.muxes\[10\].input_a sky130_fd_sc_hd__dfxtp_1
XFILLER_0_14_85 VGND VGND VPWR VPWR sky130_fd_sc_hd__fill_1
XFILLER_0_14_74 VGND VGND VPWR VPWR sky130_fd_sc_hd__decap_8
Xfanout23 net27 VGND VGND VPWR VPWR net23 sky130_fd_sc_hd__buf_2
XTAP_TAPCELL_ROW_0_58 VGND VPWR sky130_fd_sc_hd__tapvpwrvgnd_1