*SPEF "ieee 1481-1999"
*DESIGN "wb_lfsr"
*DATE "11:11:11 Fri 11 11, 1111"
*VENDOR "OpenRCX"
*PROGRAM "Parallel Extraction"
*VERSION "1.0"
*DESIGN_FLOW "NAME_SCOPE LOCAL" "PIN_CAP NONE"
*DIVIDER /
*DELIMITER :
*BUS_DELIMITER []
*T_UNIT 1 NS
*C_UNIT 1 PF
*R_UNIT 1 OHM
*L_UNIT 1 HENRY

*NAME_MAP
*3 i_clk
*4 i_reset
*5 i_wb_addr[0]
*6 i_wb_addr[1]
*7 i_wb_addr[2]
*8 i_wb_cyc
*9 i_wb_data[0]
*10 i_wb_data[1]
*11 i_wb_data[2]
*12 i_wb_data[3]
*13 i_wb_data[4]
*14 i_wb_data[5]
*15 i_wb_data[6]
*16 i_wb_data[7]
*17 i_wb_stb
*18 i_wb_we
*19 o_wb_ack
*20 o_wb_data
*21 net28
*22 FLSR_instance\.flip_flop_instance\[0\]\.in
*23 FLSR_instance\.flip_flop_instance\[0\]\.out
*24 FLSR_instance\.flip_flop_instance\[0\]\.reset
*25 FLSR_instance\.flip_flop_instance\[10\]\.in
*26 FLSR_instance\.flip_flop_instance\[10\]\.out
*27 FLSR_instance\.flip_flop_instance\[11\]\.in
*28 FLSR_instance\.flip_flop_instance\[11\]\.out
*29 FLSR_instance\.flip_flop_instance\[12\]\.in
*30 FLSR_instance\.flip_flop_instance\[12\]\.out
*31 FLSR_instance\.flip_flop_instance\[13\]\.in
*32 FLSR_instance\.flip_flop_instance\[13\]\.out
*33 FLSR_instance\.flip_flop_instance\[14\]\.in
*34 FLSR_instance\.flip_flop_instance\[14\]\.out
*35 FLSR_instance\.flip_flop_instance\[15\]\.in
*36 FLSR_instance\.flip_flop_instance\[15\]\.out
*37 FLSR_instance\.flip_flop_instance\[16\]\.in
*38 FLSR_instance\.flip_flop_instance\[16\]\.out
*39 FLSR_instance\.flip_flop_instance\[17\]\.in
*40 FLSR_instance\.flip_flop_instance\[17\]\.out
*41 FLSR_instance\.flip_flop_instance\[18\]\.in
*42 FLSR_instance\.flip_flop_instance\[18\]\.out
*43 FLSR_instance\.flip_flop_instance\[19\]\.in
*44 FLSR_instance\.flip_flop_instance\[19\]\.out
*45 FLSR_instance\.flip_flop_instance\[1\]\.in
*46 FLSR_instance\.flip_flop_instance\[1\]\.out
*47 FLSR_instance\.flip_flop_instance\[20\]\.in
*48 FLSR_instance\.flip_flop_instance\[20\]\.out
*49 FLSR_instance\.flip_flop_instance\[21\]\.in
*50 FLSR_instance\.flip_flop_instance\[21\]\.out
*51 FLSR_instance\.flip_flop_instance\[22\]\.in
*52 FLSR_instance\.flip_flop_instance\[22\]\.out
*53 FLSR_instance\.flip_flop_instance\[23\]\.in
*54 FLSR_instance\.flip_flop_instance\[23\]\.out
*55 FLSR_instance\.flip_flop_instance\[24\]\.in
*56 FLSR_instance\.flip_flop_instance\[24\]\.out
*57 FLSR_instance\.flip_flop_instance\[25\]\.in
*58 FLSR_instance\.flip_flop_instance\[25\]\.out
*59 FLSR_instance\.flip_flop_instance\[26\]\.in
*60 FLSR_instance\.flip_flop_instance\[26\]\.out
*61 FLSR_instance\.flip_flop_instance\[27\]\.in
*62 FLSR_instance\.flip_flop_instance\[27\]\.out
*63 FLSR_instance\.flip_flop_instance\[28\]\.in
*64 FLSR_instance\.flip_flop_instance\[28\]\.out
*65 FLSR_instance\.flip_flop_instance\[29\]\.in
*66 FLSR_instance\.flip_flop_instance\[29\]\.out
*67 FLSR_instance\.flip_flop_instance\[2\]\.in
*68 FLSR_instance\.flip_flop_instance\[2\]\.out
*69 FLSR_instance\.flip_flop_instance\[30\]\.in
*70 FLSR_instance\.flip_flop_instance\[30\]\.out
*71 FLSR_instance\.flip_flop_instance\[31\]\.in
*72 FLSR_instance\.flip_flop_instance\[31\]\.out
*73 FLSR_instance\.flip_flop_instance\[3\]\.in
*74 FLSR_instance\.flip_flop_instance\[3\]\.out
*75 FLSR_instance\.flip_flop_instance\[4\]\.in
*76 FLSR_instance\.flip_flop_instance\[4\]\.out
*77 FLSR_instance\.flip_flop_instance\[5\]\.in
*78 FLSR_instance\.flip_flop_instance\[5\]\.out
*79 FLSR_instance\.flip_flop_instance\[6\]\.in
*80 FLSR_instance\.flip_flop_instance\[6\]\.out
*81 FLSR_instance\.flip_flop_instance\[7\]\.in
*82 FLSR_instance\.flip_flop_instance\[7\]\.out
*83 FLSR_instance\.flip_flop_instance\[8\]\.in
*84 FLSR_instance\.flip_flop_instance\[8\]\.out
*85 FLSR_instance\.flip_flop_instance\[9\]\.in
*86 FLSR_instance\.flip_flop_instance\[9\]\.out
*87 FLSR_instance\.load_seed
*88 FLSR_instance\.muxes\[0\]\.input_a
*89 FLSR_instance\.muxes\[10\]\.input_a
*90 FLSR_instance\.muxes\[11\]\.input_a
*91 FLSR_instance\.muxes\[12\]\.input_a
*92 FLSR_instance\.muxes\[13\]\.input_a
*93 FLSR_instance\.muxes\[14\]\.input_a
*94 FLSR_instance\.muxes\[15\]\.input_a
*95 FLSR_instance\.muxes\[16\]\.input_a
*96 FLSR_instance\.muxes\[17\]\.input_a
*97 FLSR_instance\.muxes\[18\]\.input_a
*98 FLSR_instance\.muxes\[19\]\.input_a
*99 FLSR_instance\.muxes\[1\]\.input_a
*100 FLSR_instance\.muxes\[20\]\.input_a
*101 FLSR_instance\.muxes\[21\]\.input_a
*102 FLSR_instance\.muxes\[22\]\.input_a
*103 FLSR_instance\.muxes\[23\]\.input_a
*104 FLSR_instance\.muxes\[24\]\.input_a
*105 FLSR_instance\.muxes\[25\]\.input_a
*106 FLSR_instance\.muxes\[26\]\.input_a
*107 FLSR_instance\.muxes\[27\]\.input_a
*108 FLSR_instance\.muxes\[28\]\.input_a
*109 FLSR_instance\.muxes\[29\]\.input_a
*110 FLSR_instance\.muxes\[2\]\.input_a
*111 FLSR_instance\.muxes\[30\]\.input_a
*112 FLSR_instance\.muxes\[31\]\.input_a
*113 FLSR_instance\.muxes\[3\]\.input_a
*114 FLSR_instance\.muxes\[4\]\.input_a
*115 FLSR_instance\.muxes\[5\]\.input_a
*116 FLSR_instance\.muxes\[6\]\.input_a
*117 FLSR_instance\.muxes\[7\]\.input_a
*118 FLSR_instance\.muxes\[8\]\.input_a
*119 FLSR_instance\.muxes\[9\]\.input_a
*120 _000_
*121 _001_
*122 _002_
*123 _003_
*124 _004_
*125 _005_
*126 _006_
*127 _007_
*128 _008_
*129 _009_
*130 _010_
*131 _011_
*132 _012_
*133 _013_
*134 _014_
*135 _015_
*136 _016_
*137 _017_
*138 _018_
*139 _019_
*140 _020_
*141 _021_
*142 _022_
*143 _023_
*144 _024_
*145 _025_
*146 _026_
*147 _027_
*148 _028_
*149 _029_
*150 _030_
*151 _031_
*152 _032_
*153 _033_
*154 _034_
*155 _035_
*156 _036_
*157 _037_
*158 _038_
*159 _039_
*160 _040_
*161 _041_
*162 _042_
*163 _043_
*164 _044_
*165 _045_
*166 _046_
*167 _047_
*168 _048_
*169 _049_
*170 _050_
*171 _051_
*172 _052_
*173 _053_
*174 _054_
*175 _055_
*176 _056_
*177 _057_
*178 _058_
*179 _059_
*180 _060_
*181 _061_
*182 _062_
*183 _063_
*184 _064_
*185 _065_
*186 _066_
*187 _067_
*188 _068_
*189 _069_
*190 _070_
*191 _071_
*192 _072_
*193 _073_
*194 _074_
*195 _075_
*196 _076_
*197 _077_
*198 _078_
*199 _079_
*200 _080_
*201 _081_
*202 _082_
*203 _083_
*204 _084_
*205 _085_
*206 _086_
*207 _087_
*208 _088_
*209 _089_
*210 _090_
*211 _091_
*212 _092_
*213 _093_
*214 _094_
*215 _095_
*216 _096_
*217 _097_
*218 _098_
*219 _099_
*220 _100_
*221 _101_
*222 _102_
*223 _103_
*224 _104_
*225 _105_
*226 _106_
*227 _107_
*228 _108_
*229 _109_
*230 _110_
*231 _111_
*232 _112_
*233 _113_
*234 _114_
*235 _115_
*236 _116_
*237 _117_
*238 _118_
*239 _119_
*240 _120_
*241 _121_
*242 _122_
*243 _123_
*244 _124_
*245 _125_
*246 _126_
*247 _127_
*248 _128_
*249 _129_
*250 _130_
*251 _131_
*252 _132_
*253 _133_
*254 _134_
*255 _135_
*256 _136_
*257 _137_
*258 _138_
*259 _139_
*260 _140_
*261 _141_
*262 _142_
*263 _143_
*264 _144_
*265 _145_
*266 _146_
*267 _147_
*268 _148_
*269 _149_
*270 _150_
*271 _151_
*272 _152_
*273 _153_
*274 _154_
*275 _155_
*276 _156_
*277 _157_
*278 _158_
*279 _159_
*280 _160_
*281 _161_
*282 _162_
*283 _163_
*284 _164_
*285 _165_
*286 _166_
*287 net1
*288 net10
*289 net11
*290 net12
*291 net13
*292 net14
*293 net15
*294 net16
*295 net17
*296 net18
*297 net19
*298 net2
*299 net20
*300 net21
*301 net22
*302 net23
*303 net24
*304 net25
*305 net26
*306 net27
*307 net3
*308 net4
*309 net5
*310 net6
*311 net7
*312 net8
*313 net9
*314 ANTENNA_1
*315 FILLER_0_0_103
*316 FILLER_0_0_111
*317 FILLER_0_0_113
*318 FILLER_0_0_127
*319 FILLER_0_0_139
*320 FILLER_0_0_141
*321 FILLER_0_0_153
*322 FILLER_0_0_161
*323 FILLER_0_0_29
*324 FILLER_0_0_35
*325 FILLER_0_0_50
*326 FILLER_0_0_57
*327 FILLER_0_0_63
*328 FILLER_0_0_67
*329 FILLER_0_0_7
*330 FILLER_0_0_76
*331 FILLER_0_0_85
*332 FILLER_0_0_93
*333 FILLER_0_10_100
*334 FILLER_0_10_110
*335 FILLER_0_10_15
*336 FILLER_0_10_150
*337 FILLER_0_10_162
*338 FILLER_0_10_19
*339 FILLER_0_10_23
*340 FILLER_0_10_27
*341 FILLER_0_10_3
*342 FILLER_0_10_38
*343 FILLER_0_10_55
*344 FILLER_0_10_79
*345 FILLER_0_10_83
*346 FILLER_0_11_111
*347 FILLER_0_11_113
*348 FILLER_0_11_125
*349 FILLER_0_11_129
*350 FILLER_0_11_141
*351 FILLER_0_11_15
*352 FILLER_0_11_153
*353 FILLER_0_11_165
*354 FILLER_0_11_36
*355 FILLER_0_11_57
*356 FILLER_0_11_6
*357 FILLER_0_11_61
*358 FILLER_0_11_65
*359 FILLER_0_11_77
*360 FILLER_0_11_96
*361 FILLER_0_12_118
*362 FILLER_0_12_124
*363 FILLER_0_12_134
*364 FILLER_0_12_164
*365 FILLER_0_12_17
*366 FILLER_0_12_25
*367 FILLER_0_12_29
*368 FILLER_0_12_3
*369 FILLER_0_12_33
*370 FILLER_0_12_41
*371 FILLER_0_12_52
*372 FILLER_0_12_64
*373 FILLER_0_12_72
*374 FILLER_0_12_76
*375 FILLER_0_13_101
*376 FILLER_0_13_129
*377 FILLER_0_13_141
*378 FILLER_0_13_157
*379 FILLER_0_13_19
*380 FILLER_0_13_25
*381 FILLER_0_13_35
*382 FILLER_0_13_39
*383 FILLER_0_13_51
*384 FILLER_0_13_55
*385 FILLER_0_13_57
*386 FILLER_0_13_62
*387 FILLER_0_13_66
*388 FILLER_0_13_81
*389 FILLER_0_13_92
*390 FILLER_0_14_109
*391 FILLER_0_14_114
*392 FILLER_0_14_141
*393 FILLER_0_14_15
*394 FILLER_0_14_165
*395 FILLER_0_14_23
*396 FILLER_0_14_3
*397 FILLER_0_14_55
*398 FILLER_0_14_74
*399 FILLER_0_14_82
*400 FILLER_0_14_85
*401 FILLER_0_14_97
*402 FILLER_0_15_111
*403 FILLER_0_15_117
*404 FILLER_0_15_129
*405 FILLER_0_15_141
*406 FILLER_0_15_155
*407 FILLER_0_15_163
*408 FILLER_0_15_28
*409 FILLER_0_15_38
*410 FILLER_0_15_45
*411 FILLER_0_15_52
*412 FILLER_0_15_57
*413 FILLER_0_15_61
*414 FILLER_0_15_70
*415 FILLER_0_15_74
*416 FILLER_0_15_97
*417 FILLER_0_16_110
*418 FILLER_0_16_137
*419 FILLER_0_16_141
*420 FILLER_0_16_153
*421 FILLER_0_16_161
*422 FILLER_0_16_165
*423 FILLER_0_16_25
*424 FILLER_0_16_3
*425 FILLER_0_16_34
*426 FILLER_0_16_63
*427 FILLER_0_16_73
*428 FILLER_0_16_85
*429 FILLER_0_16_96
*430 FILLER_0_17_103
*431 FILLER_0_17_11
*432 FILLER_0_17_111
*433 FILLER_0_17_120
*434 FILLER_0_17_132
*435 FILLER_0_17_136
*436 FILLER_0_17_157
*437 FILLER_0_17_165
*438 FILLER_0_17_17
*439 FILLER_0_17_29
*440 FILLER_0_17_3
*441 FILLER_0_17_41
*442 FILLER_0_17_53
*443 FILLER_0_17_57
*444 FILLER_0_17_75
*445 FILLER_0_17_87
*446 FILLER_0_17_91
*447 FILLER_0_18_137
*448 FILLER_0_18_144
*449 FILLER_0_18_156
*450 FILLER_0_18_164
*451 FILLER_0_18_23
*452 FILLER_0_18_27
*453 FILLER_0_18_29
*454 FILLER_0_18_33
*455 FILLER_0_18_37
*456 FILLER_0_18_45
*457 FILLER_0_18_49
*458 FILLER_0_18_53
*459 FILLER_0_18_61
*460 FILLER_0_18_65
*461 FILLER_0_18_76
*462 FILLER_0_18_85
*463 FILLER_0_19_113
*464 FILLER_0_19_117
*465 FILLER_0_19_125
*466 FILLER_0_19_147
*467 FILLER_0_19_159
*468 FILLER_0_19_165
*469 FILLER_0_19_39
*470 FILLER_0_19_9
*471 FILLER_0_19_93
*472 FILLER_0_1_11
*473 FILLER_0_1_110
*474 FILLER_0_1_113
*475 FILLER_0_1_117
*476 FILLER_0_1_134
*477 FILLER_0_1_146
*478 FILLER_0_1_158
*479 FILLER_0_1_3
*480 FILLER_0_1_35
*481 FILLER_0_1_52
*482 FILLER_0_1_57
*483 FILLER_0_1_88
*484 FILLER_0_20_121
*485 FILLER_0_20_129
*486 FILLER_0_20_137
*487 FILLER_0_20_15
*488 FILLER_0_20_161
*489 FILLER_0_20_165
*490 FILLER_0_20_26
*491 FILLER_0_20_29
*492 FILLER_0_20_3
*493 FILLER_0_20_37
*494 FILLER_0_20_45
*495 FILLER_0_20_57
*496 FILLER_0_20_69
*497 FILLER_0_20_73
*498 FILLER_0_20_77
*499 FILLER_0_20_83
*500 FILLER_0_21_105
*501 FILLER_0_21_11
*502 FILLER_0_21_111
*503 FILLER_0_21_113
*504 FILLER_0_21_123
*505 FILLER_0_21_127
*506 FILLER_0_21_150
*507 FILLER_0_21_21
*508 FILLER_0_21_3
*509 FILLER_0_21_34
*510 FILLER_0_21_51
*511 FILLER_0_21_55
*512 FILLER_0_21_57
*513 FILLER_0_21_7
*514 FILLER_0_21_90
*515 FILLER_0_22_106
*516 FILLER_0_22_114
*517 FILLER_0_22_132
*518 FILLER_0_22_150
*519 FILLER_0_22_162
*520 FILLER_0_22_18
*521 FILLER_0_22_3
*522 FILLER_0_22_48
*523 FILLER_0_22_72
*524 FILLER_0_22_76
*525 FILLER_0_22_97
*526 FILLER_0_23_122
*527 FILLER_0_23_148
*528 FILLER_0_23_160
*529 FILLER_0_23_19
*530 FILLER_0_23_31
*531 FILLER_0_23_43
*532 FILLER_0_23_55
*533 FILLER_0_23_57
*534 FILLER_0_23_65
*535 FILLER_0_23_81
*536 FILLER_0_23_89
*537 FILLER_0_24_107
*538 FILLER_0_24_119
*539 FILLER_0_24_123
*540 FILLER_0_24_130
*541 FILLER_0_24_138
*542 FILLER_0_24_144
*543 FILLER_0_24_15
*544 FILLER_0_24_156
*545 FILLER_0_24_164
*546 FILLER_0_24_27
*547 FILLER_0_24_29
*548 FILLER_0_24_3
*549 FILLER_0_24_37
*550 FILLER_0_24_48
*551 FILLER_0_24_54
*552 FILLER_0_24_58
*553 FILLER_0_24_70
*554 FILLER_0_24_82
*555 FILLER_0_24_85
*556 FILLER_0_24_91
*557 FILLER_0_24_95
*558 FILLER_0_25_14
*559 FILLER_0_25_142
*560 FILLER_0_25_154
*561 FILLER_0_25_3
*562 FILLER_0_25_30
*563 FILLER_0_25_57
*564 FILLER_0_25_61
*565 FILLER_0_25_66
*566 FILLER_0_25_72
*567 FILLER_0_25_81
*568 FILLER_0_25_97
*569 FILLER_0_26_102
*570 FILLER_0_26_114
*571 FILLER_0_26_126
*572 FILLER_0_26_138
*573 FILLER_0_26_141
*574 FILLER_0_26_153
*575 FILLER_0_26_165
*576 FILLER_0_26_22
*577 FILLER_0_26_29
*578 FILLER_0_26_33
*579 FILLER_0_26_43
*580 FILLER_0_26_85
*581 FILLER_0_27_106
*582 FILLER_0_27_113
*583 FILLER_0_27_119
*584 FILLER_0_27_131
*585 FILLER_0_27_139
*586 FILLER_0_27_141
*587 FILLER_0_27_153
*588 FILLER_0_27_21
*589 FILLER_0_27_54
*590 FILLER_0_27_57
*591 FILLER_0_27_69
*592 FILLER_0_27_77
*593 FILLER_0_27_83
*594 FILLER_0_27_9
*595 FILLER_0_27_94
*596 FILLER_0_2_109
*597 FILLER_0_2_149
*598 FILLER_0_2_15
*599 FILLER_0_2_161
*600 FILLER_0_2_165
*601 FILLER_0_2_21
*602 FILLER_0_2_27
*603 FILLER_0_2_3
*604 FILLER_0_2_38
*605 FILLER_0_2_42
*606 FILLER_0_2_48
*607 FILLER_0_2_60
*608 FILLER_0_2_73
*609 FILLER_0_2_81
*610 FILLER_0_2_85
*611 FILLER_0_2_97
*612 FILLER_0_3_116
*613 FILLER_0_3_125
*614 FILLER_0_3_135
*615 FILLER_0_3_160
*616 FILLER_0_3_19
*617 FILLER_0_3_54
*618 FILLER_0_3_57
*619 FILLER_0_3_7
*620 FILLER_0_3_81
*621 FILLER_0_3_89
*622 FILLER_0_4_101
*623 FILLER_0_4_113
*624 FILLER_0_4_125
*625 FILLER_0_4_150
*626 FILLER_0_4_162
*627 FILLER_0_4_19
*628 FILLER_0_4_27
*629 FILLER_0_4_32
*630 FILLER_0_4_38
*631 FILLER_0_4_74
*632 FILLER_0_4_82
*633 FILLER_0_4_85
*634 FILLER_0_4_95
*635 FILLER_0_5_105
*636 FILLER_0_5_111
*637 FILLER_0_5_113
*638 FILLER_0_5_137
*639 FILLER_0_5_141
*640 FILLER_0_5_165
*641 FILLER_0_5_3
*642 FILLER_0_5_37
*643 FILLER_0_5_48
*644 FILLER_0_5_57
*645 FILLER_0_5_69
*646 FILLER_0_5_76
*647 FILLER_0_5_98
*648 FILLER_0_6_130
*649 FILLER_0_6_138
*650 FILLER_0_6_141
*651 FILLER_0_6_147
*652 FILLER_0_6_15
*653 FILLER_0_6_159
*654 FILLER_0_6_22
*655 FILLER_0_6_29
*656 FILLER_0_6_3
*657 FILLER_0_6_33
*658 FILLER_0_6_39
*659 FILLER_0_6_43
*660 FILLER_0_6_48
*661 FILLER_0_6_54
*662 FILLER_0_6_58
*663 FILLER_0_6_85
*664 FILLER_0_6_96
*665 FILLER_0_7_109
*666 FILLER_0_7_113
*667 FILLER_0_7_138
*668 FILLER_0_7_142
*669 FILLER_0_7_15
*670 FILLER_0_7_152
*671 FILLER_0_7_164
*672 FILLER_0_7_26
*673 FILLER_0_7_3
*674 FILLER_0_7_54
*675 FILLER_0_7_77
*676 FILLER_0_7_81
*677 FILLER_0_7_85
*678 FILLER_0_7_97
*679 FILLER_0_8_109
*680 FILLER_0_8_121
*681 FILLER_0_8_133
*682 FILLER_0_8_161
*683 FILLER_0_8_165
*684 FILLER_0_8_23
*685 FILLER_0_8_27
*686 FILLER_0_8_29
*687 FILLER_0_8_3
*688 FILLER_0_8_33
*689 FILLER_0_8_45
*690 FILLER_0_8_55
*691 FILLER_0_8_72
*692 FILLER_0_8_94
*693 FILLER_0_9_113
*694 FILLER_0_9_117
*695 FILLER_0_9_134
*696 FILLER_0_9_139
*697 FILLER_0_9_143
*698 FILLER_0_9_154
*699 FILLER_0_9_19
*700 FILLER_0_9_54
*701 FILLER_0_9_57
*702 FILLER_0_9_63
*703 FILLER_0_9_73
*704 FILLER_0_9_79
*705 PHY_EDGE_ROW_0_Left_28
*706 PHY_EDGE_ROW_0_Right_0
*707 PHY_EDGE_ROW_10_Left_38
*708 PHY_EDGE_ROW_10_Right_10
*709 PHY_EDGE_ROW_11_Left_39
*710 PHY_EDGE_ROW_11_Right_11
*711 PHY_EDGE_ROW_12_Left_40
*712 PHY_EDGE_ROW_12_Right_12
*713 PHY_EDGE_ROW_13_Left_41
*714 PHY_EDGE_ROW_13_Right_13
*715 PHY_EDGE_ROW_14_Left_42
*716 PHY_EDGE_ROW_14_Right_14
*717 PHY_EDGE_ROW_15_Left_43
*718 PHY_EDGE_ROW_15_Right_15
*719 PHY_EDGE_ROW_16_Left_44
*720 PHY_EDGE_ROW_16_Right_16
*721 PHY_EDGE_ROW_17_Left_45
*722 PHY_EDGE_ROW_17_Right_17
*723 PHY_EDGE_ROW_18_Left_46
*724 PHY_EDGE_ROW_18_Right_18
*725 PHY_EDGE_ROW_19_Left_47
*726 PHY_EDGE_ROW_19_Right_19
*727 PHY_EDGE_ROW_1_Left_29
*728 PHY_EDGE_ROW_1_Right_1
*729 PHY_EDGE_ROW_20_Left_48
*730 PHY_EDGE_ROW_20_Right_20
*731 PHY_EDGE_ROW_21_Left_49
*732 PHY_EDGE_ROW_21_Right_21
*733 PHY_EDGE_ROW_22_Left_50
*734 PHY_EDGE_ROW_22_Right_22
*735 PHY_EDGE_ROW_23_Left_51
*736 PHY_EDGE_ROW_23_Right_23
*737 PHY_EDGE_ROW_24_Left_52
*738 PHY_EDGE_ROW_24_Right_24
*739 PHY_EDGE_ROW_25_Left_53
*740 PHY_EDGE_ROW_25_Right_25
*741 PHY_EDGE_ROW_26_Left_54
*742 PHY_EDGE_ROW_26_Right_26
*743 PHY_EDGE_ROW_27_Left_55
*744 PHY_EDGE_ROW_27_Right_27
*745 PHY_EDGE_ROW_2_Left_30
*746 PHY_EDGE_ROW_2_Right_2
*747 PHY_EDGE_ROW_3_Left_31
*748 PHY_EDGE_ROW_3_Right_3
*749 PHY_EDGE_ROW_4_Left_32
*750 PHY_EDGE_ROW_4_Right_4
*751 PHY_EDGE_ROW_5_Left_33
*752 PHY_EDGE_ROW_5_Right_5
*753 PHY_EDGE_ROW_6_Left_34
*754 PHY_EDGE_ROW_6_Right_6
*755 PHY_EDGE_ROW_7_Left_35
*756 PHY_EDGE_ROW_7_Right_7
*757 PHY_EDGE_ROW_8_Left_36
*758 PHY_EDGE_ROW_8_Right_8
*759 PHY_EDGE_ROW_9_Left_37
*760 PHY_EDGE_ROW_9_Right_9
*761 TAP_TAPCELL_ROW_0_56
*762 TAP_TAPCELL_ROW_0_57
*763 TAP_TAPCELL_ROW_0_58
*764 TAP_TAPCELL_ROW_0_59
*765 TAP_TAPCELL_ROW_0_60
*766 TAP_TAPCELL_ROW_10_83
*767 TAP_TAPCELL_ROW_10_84
*768 TAP_TAPCELL_ROW_10_85
*769 TAP_TAPCELL_ROW_11_86
*770 TAP_TAPCELL_ROW_11_87
*771 TAP_TAPCELL_ROW_12_88
*772 TAP_TAPCELL_ROW_12_89
*773 TAP_TAPCELL_ROW_12_90
*774 TAP_TAPCELL_ROW_13_91
*775 TAP_TAPCELL_ROW_13_92
*776 TAP_TAPCELL_ROW_14_93
*777 TAP_TAPCELL_ROW_14_94
*778 TAP_TAPCELL_ROW_14_95
*779 TAP_TAPCELL_ROW_15_96
*780 TAP_TAPCELL_ROW_15_97
*781 TAP_TAPCELL_ROW_16_100
*782 TAP_TAPCELL_ROW_16_98
*783 TAP_TAPCELL_ROW_16_99
*784 TAP_TAPCELL_ROW_17_101
*785 TAP_TAPCELL_ROW_17_102
*786 TAP_TAPCELL_ROW_18_103
*787 TAP_TAPCELL_ROW_18_104
*788 TAP_TAPCELL_ROW_18_105
*789 TAP_TAPCELL_ROW_19_106
*790 TAP_TAPCELL_ROW_19_107
*791 TAP_TAPCELL_ROW_1_61
*792 TAP_TAPCELL_ROW_1_62
*793 TAP_TAPCELL_ROW_20_108
*794 TAP_TAPCELL_ROW_20_109
*795 TAP_TAPCELL_ROW_20_110
*796 TAP_TAPCELL_ROW_21_111
*797 TAP_TAPCELL_ROW_21_112
*798 TAP_TAPCELL_ROW_22_113
*799 TAP_TAPCELL_ROW_22_114
*800 TAP_TAPCELL_ROW_22_115
*801 TAP_TAPCELL_ROW_23_116
*802 TAP_TAPCELL_ROW_23_117
*803 TAP_TAPCELL_ROW_24_118
*804 TAP_TAPCELL_ROW_24_119
*805 TAP_TAPCELL_ROW_24_120
*806 TAP_TAPCELL_ROW_25_121
*807 TAP_TAPCELL_ROW_25_122
*808 TAP_TAPCELL_ROW_26_123
*809 TAP_TAPCELL_ROW_26_124
*810 TAP_TAPCELL_ROW_26_125
*811 TAP_TAPCELL_ROW_27_126
*812 TAP_TAPCELL_ROW_27_127
*813 TAP_TAPCELL_ROW_27_128
*814 TAP_TAPCELL_ROW_27_129
*815 TAP_TAPCELL_ROW_27_130
*816 TAP_TAPCELL_ROW_2_63
*817 TAP_TAPCELL_ROW_2_64
*818 TAP_TAPCELL_ROW_2_65
*819 TAP_TAPCELL_ROW_3_66
*820 TAP_TAPCELL_ROW_3_67
*821 TAP_TAPCELL_ROW_4_68
*822 TAP_TAPCELL_ROW_4_69
*823 TAP_TAPCELL_ROW_4_70
*824 TAP_TAPCELL_ROW_5_71
*825 TAP_TAPCELL_ROW_5_72
*826 TAP_TAPCELL_ROW_6_73
*827 TAP_TAPCELL_ROW_6_74
*828 TAP_TAPCELL_ROW_6_75
*829 TAP_TAPCELL_ROW_7_76
*830 TAP_TAPCELL_ROW_7_77
*831 TAP_TAPCELL_ROW_8_78
*832 TAP_TAPCELL_ROW_8_79
*833 TAP_TAPCELL_ROW_8_80
*834 TAP_TAPCELL_ROW_9_81
*835 TAP_TAPCELL_ROW_9_82
*836 _167_
*837 _168_
*838 _169_
*839 _170_
*840 _171_
*841 _172_
*842 _173_
*843 _174_
*844 _175_
*845 _176_
*846 _177_
*847 _178_
*848 _179_
*849 _180_
*850 _181_
*851 _182_
*852 _183_
*853 _184_
*854 _185_
*855 _186_
*856 _187_
*857 _188_
*858 _189_
*859 _190_
*860 _191_
*861 _192_
*862 _193_
*863 _194_
*864 _195_
*865 _196_
*866 _197_
*867 _198_
*868 _199_
*869 _200_
*870 _201_
*871 _202_
*872 _203_
*873 _204_
*874 _205_
*875 _206_
*876 _207_
*877 _208_
*878 _209_
*879 _210_
*880 _211_
*881 _212_
*882 _213_
*883 _214_
*884 _215_
*885 _216_
*886 _217_
*887 _218_
*888 _219_
*889 _220_
*890 _221_
*891 _222_
*892 _223_
*893 _224_
*894 _225_
*895 _226_
*896 _227_
*897 _228_
*898 _229_
*899 _230_
*900 _231_
*901 _232_
*902 _233_
*903 _234_
*904 _235_
*905 _236_
*906 _237_
*907 _238_
*908 _239_
*909 _240_
*910 _241_
*911 _242_
*912 _243_
*913 _244_
*914 _245_
*915 _246_
*916 _247_
*917 _248_
*918 _249_
*919 _250_
*920 _251_
*921 _252_
*922 _253_
*923 _254_
*924 _255_
*925 _256_
*926 _257_
*927 _258_
*928 _259_
*929 _260_
*930 _261_
*931 _262_
*932 _263_
*933 _264_
*934 _265_
*935 _266_
*936 _267_
*937 _268_
*938 _269_
*939 _270_
*940 _271_
*941 _272_
*942 _273_
*943 _274_
*944 _275_
*945 _276_
*946 _277_
*947 _278_
*948 _279_
*949 _280_
*950 _281_
*951 _282_
*952 _283_
*953 _284_
*954 _285_
*955 _286_
*956 _287_
*957 _288_
*958 _289_
*959 _290_
*960 _291_
*961 _292_
*962 _293_
*963 _294_
*964 _295_
*965 _296_
*966 _297_
*967 _298_
*968 _299_
*969 _300_
*970 _301_
*971 _302_
*972 _303_
*973 _304_
*974 _305_
*975 _306_
*976 _307_
*977 _308_
*978 _309_
*979 _310_
*980 _311_
*981 _312_
*982 _313_
*983 _314_
*984 _315_
*985 _316_
*986 _317_
*987 _318_
*988 _319_
*989 _320_
*990 _321_
*991 _322_
*992 _323_
*993 _324_
*994 _325_
*995 _326_
*996 _327_
*997 _328_
*998 _329_
*999 _330_
*1000 _331_
*1001 _332_
*1002 _333_
*1003 _334_
*1004 _335_
*1005 _336_
*1006 _337_
*1007 _338_
*1008 _339_
*1009 _340_
*1010 _341_
*1011 _342_
*1012 _343_
*1013 _344_
*1014 _345_
*1015 _346_
*1016 _347_
*1017 _348_
*1018 _349_
*1019 _350_
*1020 _351_
*1021 _352_
*1022 _353_
*1023 _354_
*1024 _355_
*1025 _356_
*1026 _357_
*1027 _358_
*1028 _359_
*1029 _360_
*1030 _361_
*1031 _362_
*1032 _363_
*1033 _364_
*1034 _365_
*1035 _366_
*1036 _367_
*1037 _368_
*1038 _369_
*1039 _370_
*1040 _371_
*1041 _372_
*1042 _373_
*1043 _374_
*1044 _375_
*1045 _376_
*1046 _377_
*1047 _378_
*1048 _379_
*1049 _380_
*1050 _381_
*1051 _382_
*1052 _383_
*1053 _384_
*1054 _385_
*1055 _386_
*1056 _387_
*1057 _388_
*1058 _389_
*1059 _390_
*1060 _391_
*1061 _392_
*1062 _393_
*1063 _394_
*1064 _395_
*1065 _396_
*1066 _397_
*1067 _398_
*1068 _399_
*1069 _400_
*1070 _401_
*1071 _402_
*1072 _403_
*1073 _404_
*1074 _405_
*1075 _406_
*1076 _407_
*1077 _408_
*1078 _409_
*1079 _410_
*1080 _411_
*1081 _412_
*1082 _413_
*1083 _414_
*1084 _415_
*1085 _416_
*1086 _417_
*1087 _418_
*1088 _419_
*1089 _420_
*1090 _421_
*1091 _422_
*1092 _423_
*1093 _424_
*1094 _425_
*1095 _426_
*1096 _427_
*1097 _428_
*1098 _429_
*1099 _430_
*1100 _431_
*1101 _432_
*1102 _433_
*1103 fanout19
*1104 fanout20
*1105 fanout21
*1106 fanout22
*1107 fanout23
*1108 fanout24
*1109 fanout25
*1110 fanout26
*1111 fanout27
*1112 input1
*1113 input10
*1114 input11
*1115 input12
*1116 input13
*1117 input14
*1118 input15
*1119 input16
*1120 input2
*1121 input3
*1122 input4
*1123 input5
*1124 input6
*1125 input7
*1126 input8
*1127 input9
*1128 output17
*1129 output18
*1130 wb_lfsr_28

*PORTS
i_clk I
i_reset I
i_wb_addr[0] I
i_wb_addr[1] I
i_wb_addr[2] I
i_wb_cyc I
i_wb_data[0] I
i_wb_data[1] I
i_wb_data[2] I
i_wb_data[3] I
i_wb_data[4] I
i_wb_data[5] I
i_wb_data[6] I
i_wb_data[7] I
i_wb_stb I
i_wb_we I
o_wb_ack O
o_wb_data O
o_wb_stall O

*D_NET *3 0.00103651
*CONN
*P i_clk I
*I *1112:A I *D sky130_fd_sc_hd__clkbuf_1
*CAP
1 i_clk 0.000518257
2 *1112:A 0
3 *3:17 0.000518257
4 *3:17 *1113:A 0
*RES
1 i_clk *3:17 30.3109 
2 *3:17 *1112:A 23 
*END

*D_NET *4 0.000678484
*CONN
*P i_reset I
*I *1120:A I *D sky130_fd_sc_hd__clkbuf_1
*CAP
1 i_reset 0.000339242
2 *1120:A 0
3 *4:15 0.000339242
*RES
1 i_reset *4:15 27.893 
2 *4:15 *1120:A 23 
*END

*D_NET *5 0.00182228
*CONN
*P i_wb_addr[0] I
*I *1121:A I *D sky130_fd_sc_hd__buf_2
*CAP
1 i_wb_addr[0] 0.000651259
2 *1121:A 0
3 *5:23 0.000651259
4 *5:23 *944:B2 0
5 *5:23 *945:A2 9.84794e-05
6 *5:23 *98:18 7.42621e-05
7 *5:23 *249:62 1.80198e-05
8 *5:23 *252:35 0.000102696
9 *5:23 *288:6 0.000226306
*RES
1 i_wb_addr[0] *5:23 31.6129 
2 *5:23 *1121:A 23 
*END

*D_NET *6 0.00098426
*CONN
*P i_wb_addr[1] I
*I *1122:A I *D sky130_fd_sc_hd__buf_2
*CAP
1 i_wb_addr[1] 0.00049213
2 *1122:A 0
3 *6:15 0.00049213
4 *6:15 *293:8 0
*RES
1 i_wb_addr[1] *6:15 28.1122 
2 *6:15 *1122:A 23 
*END

*D_NET *7 0.00105153
*CONN
*P i_wb_addr[2] I
*I *1123:A I *D sky130_fd_sc_hd__clkbuf_4
*CAP
1 i_wb_addr[2] 0.000525767
2 *1123:A 0.000525767
3 *1123:A *1118:A 0
*RES
1 i_wb_addr[2] *1123:A 49.9733 
*END

*D_NET *8 0.000594099
*CONN
*P i_wb_cyc I
*I *1124:A I *D sky130_fd_sc_hd__buf_1
*CAP
1 i_wb_cyc 0.000297049
2 *1124:A 0.000297049
3 *1124:A *296:14 0
*RES
1 i_wb_cyc *1124:A 49.881 
*END

*D_NET *9 0.00111635
*CONN
*P i_wb_data[0] I
*I *1125:A I *D sky130_fd_sc_hd__clkbuf_2
*CAP
1 i_wb_data[0] 0.000537833
2 *1125:A 0.000537833
3 *1125:A *309:10 4.06849e-05
*RES
1 i_wb_data[0] *1125:A 49.5586 
*END

*D_NET *10 0.00150771
*CONN
*P i_wb_data[1] I
*I *1126:A I *D sky130_fd_sc_hd__buf_2
*CAP
1 i_wb_data[1] 0.000753856
2 *1126:A 0
3 *10:9 0.000753856
*RES
1 i_wb_data[1] *10:9 30.9914 
2 *10:9 *1126:A 23 
*END

*D_NET *11 0.00124635
*CONN
*P i_wb_data[2] I
*I *1127:A I *D sky130_fd_sc_hd__clkbuf_2
*CAP
1 i_wb_data[2] 0.000614506
2 *1127:A 0
3 *11:11 0.000614506
4 *11:11 *313:8 1.73399e-05
*RES
1 i_wb_data[2] *11:11 28.1329 
2 *11:11 *1127:A 23 
*END

*D_NET *12 0.000870118
*CONN
*P i_wb_data[3] I
*I *1113:A I *D sky130_fd_sc_hd__clkbuf_2
*CAP
1 i_wb_data[3] 0.000435059
2 *1113:A 0.000435059
3 *3:17 *1113:A 0
*RES
1 i_wb_data[3] *1113:A 47.5907 
*END

*D_NET *13 0.000874597
*CONN
*P i_wb_data[4] I
*I *1114:A I *D sky130_fd_sc_hd__clkbuf_2
*CAP
1 i_wb_data[4] 0.000435915
2 *1114:A 0.000435915
3 *1114:A *915:A0 2.76611e-06
*RES
1 i_wb_data[4] *1114:A 47.5907 
*END

*D_NET *14 0.00111635
*CONN
*P i_wb_data[5] I
*I *1115:A I *D sky130_fd_sc_hd__clkbuf_2
*CAP
1 i_wb_data[5] 0.000537833
2 *1115:A 0.000537833
3 *1115:A *891:S 4.06849e-05
*RES
1 i_wb_data[5] *1115:A 49.5586 
*END

*D_NET *15 0.000598483
*CONN
*P i_wb_data[6] I
*I *1116:A I *D sky130_fd_sc_hd__clkbuf_2
*CAP
1 i_wb_data[6] 0.000299241
2 *1116:A 0.000299241
*RES
1 i_wb_data[6] *1116:A 49.6532 
*END

*D_NET *16 0.00062878
*CONN
*P i_wb_data[7] I
*I *1117:A I *D sky130_fd_sc_hd__buf_1
*CAP
1 i_wb_data[7] 0.00026169
2 *1117:A 0.00026169
3 *1117:A *299:50 0.000105399
*RES
1 i_wb_data[7] *1117:A 48.1354 
*END

*D_NET *17 0.0011018
*CONN
*P i_wb_stb I
*I *1118:A I *D sky130_fd_sc_hd__buf_1
*CAP
1 i_wb_stb 0.000534754
2 *1118:A 0.000534754
3 *1118:A *309:10 3.22879e-05
4 *1123:A *1118:A 0
*RES
1 i_wb_stb *1118:A 49.5793 
*END

*D_NET *18 0.00090252
*CONN
*P i_wb_we I
*I *1119:A I *D sky130_fd_sc_hd__buf_1
*CAP
1 i_wb_we 0.00045126
2 *1119:A 0.00045126
*RES
1 i_wb_we *1119:A 47.3214 
*END

*D_NET *19 0.00080034
*CONN
*P o_wb_ack O
*I *1128:X O *D sky130_fd_sc_hd__clkbuf_4
*CAP
1 o_wb_ack 0.000371092
2 *1128:X 0.000371092
3 o_wb_ack *22:10 5.81559e-05
*RES
1 *1128:X o_wb_ack 48.6592 
*END

*D_NET *20 0.00186083
*CONN
*P o_wb_data O
*I *1129:X O *D sky130_fd_sc_hd__clkbuf_4
*CAP
1 o_wb_data 0.000449901
2 *1129:X 0.000480513
3 *20:8 0.000930415
*RES
1 *1129:X *20:8 46.2443 
2 *20:8 o_wb_data 10.1086 
*END

*D_NET *21 0.000808989
*CONN
*P o_wb_stall O
*I *1130:LO O *D sky130_fd_sc_hd__conb_1
*CAP
1 o_wb_stall 0.000397767
2 *1130:LO 0.000397767
3 o_wb_stall *298:12 1.34542e-05
*RES
1 *1130:LO o_wb_stall 47.1648 
*END

*D_NET *22 0.00122497
*CONN
*I *1102:D I *D sky130_fd_sc_hd__dfrtp_1
*I *905:X O *D sky130_fd_sc_hd__clkbuf_1
*CAP
1 *1102:D 2.63249e-05
2 *905:X 0.000532529
3 *22:10 0.000558854
4 *1102:D *1102:CLK 2.93747e-05
5 *22:10 *24:52 0
6 *22:10 *221:8 0
7 *22:10 *224:28 0
8 *22:10 *302:44 1.97329e-05
9 o_wb_ack *22:10 5.81559e-05
*RES
1 *905:X *22:10 47.9221 
2 *22:10 *1102:D 38.6214 
*END

*D_NET *23 0.000944151
*CONN
*I *899:A0 I *D sky130_fd_sc_hd__mux2_1
*I *1102:Q O *D sky130_fd_sc_hd__dfrtp_1
*CAP
1 *899:A0 0
2 *1102:Q 0.000294226
3 *23:12 0.000294226
4 *23:12 *899:A1 0.000292588
5 *23:12 *24:52 3.22051e-05
6 *23:12 *302:67 0
7 *23:12 *302:86 3.09046e-05
*RES
1 *1102:Q *23:12 43.7379 
2 *23:12 *899:A0 38 
*END

*D_NET *24 0.0127459
*CONN
*I *1022:A I *D sky130_fd_sc_hd__buf_4
*I *1011:A I *D sky130_fd_sc_hd__buf_4
*I *998:A0 I *D sky130_fd_sc_hd__mux2_1
*I *1034:A I *D sky130_fd_sc_hd__inv_2
*I *1033:A I *D sky130_fd_sc_hd__inv_2
*I *1000:A I *D sky130_fd_sc_hd__buf_4
*I *1070:Q O *D sky130_fd_sc_hd__dfxtp_2
*CAP
1 *1022:A 9.40861e-05
2 *1011:A 0.000290448
3 *998:A0 6.54513e-05
4 *1034:A 0
5 *1033:A 0
6 *1000:A 0.000172839
7 *1070:Q 0.000158086
8 *24:63 0.000478239
9 *24:52 0.000648802
10 *24:37 0.000746876
11 *24:22 0.00208617
12 *24:14 0.00215736
13 *24:8 0.000471938
14 *998:A0 *998:A1 9.75779e-05
15 *998:A0 *998:S 9.41704e-05
16 *1000:A *960:A1 9.67842e-05
17 *1000:A *960:S 0.000112834
18 *1000:A *257:36 5.41288e-05
19 *1000:A *257:51 6.67764e-05
20 *1000:A *312:25 0.000218962
21 *1000:A *312:42 0.000114074
22 *1011:A *989:B2 4.89358e-05
23 *1011:A *998:A1 1.72202e-05
24 *1011:A *285:8 3.23857e-06
25 *1011:A *290:50 0.000306344
26 *1022:A *309:12 0.000289964
27 *1022:A *311:58 0.000299187
28 *24:8 *304:52 9.46813e-05
29 *24:14 *279:14 0.000219383
30 *24:14 *309:12 0.000191166
31 *24:14 *311:58 0.000188926
32 *24:22 *1059:CLK 3.71369e-05
33 *24:22 *1059:D 2.91689e-05
34 *24:22 *259:30 0.000607625
35 *24:22 *279:14 0.000980097
36 *24:22 *279:22 0.00041314
37 *24:37 *257:51 0.000137061
38 *24:37 *259:63 6.67764e-05
39 *24:37 *312:42 0.000145049
40 *24:52 *151:12 0
41 *24:52 *221:8 0
42 *24:52 *302:44 2.22079e-05
43 *24:52 *302:67 0.000103647
44 *24:63 *259:18 7.91493e-05
45 *24:63 *259:112 1.58805e-05
46 *24:63 *290:50 0.000192087
47 *22:10 *24:52 0
48 *23:12 *24:52 3.22051e-05
*RES
1 *1070:Q *24:8 40.0507 
2 *24:8 *24:14 20.1371 
3 *24:14 *24:22 46.2786 
4 *24:22 *1000:A 43.8207 
5 *24:22 *24:37 18.6664 
6 *24:37 *1033:A 23 
7 *24:37 *24:52 41.7036 
8 *24:52 *1034:A 23 
9 *24:14 *24:63 32.61 
10 *24:63 *998:A0 24.5743 
11 *24:63 *1011:A 28.9036 
12 *24:8 *1022:A 42.0186 
*END

*D_NET *25 0.000732133
*CONN
*I *1092:D I *D sky130_fd_sc_hd__dfrtp_1
*I *882:X O *D sky130_fd_sc_hd__clkbuf_1
*CAP
1 *1092:D 3.98641e-05
2 *882:X 0.000183727
3 *25:10 0.000223591
4 *1092:D *209:74 2.93747e-05
5 *25:10 *881:A1 0.000111852
6 *25:10 *286:47 0.000143725
*RES
1 *882:X *25:10 41.1279 
2 *25:10 *1092:D 38.6214 
*END

*D_NET *26 0.00054565
*CONN
*I *879:A0 I *D sky130_fd_sc_hd__mux2_1
*I *1092:Q O *D sky130_fd_sc_hd__dfrtp_1
*CAP
1 *879:A0 0
2 *1092:Q 0.000188448
3 *26:10 0.000188448
4 *26:10 *286:62 0.000168754
*RES
1 *1092:Q *26:10 41.3557 
2 *26:10 *879:A0 38 
*END

*D_NET *27 0.000661554
*CONN
*I *1091:D I *D sky130_fd_sc_hd__dfrtp_1
*I *880:X O *D sky130_fd_sc_hd__clkbuf_1
*CAP
1 *1091:D 0
2 *880:X 0.00016733
3 *27:10 0.00016733
4 *27:10 *879:A1 3.92407e-05
5 *27:10 *880:A 0.000143543
6 *27:10 *987:A1 0.00014411
*RES
1 *880:X *27:10 41.8321 
2 *27:10 *1091:D 38 
*END

*D_NET *28 0.00254187
*CONN
*I *877:A0 I *D sky130_fd_sc_hd__mux2_1